* File: RCA.pex.netlist.pex
* Created: Fri May 26 20:11:12 2023
* Program "Calibre xRC"
* Version "v2017.4_19.14"
* Nominal Temperature: 27C
* Circuit Temperature: 27C
* 
.subckt PM_RCA%XFULLADDER0/XHALFADDER1/XXOR1/INV_Y 41 46 53 56
c0 99 0 0.0879708f
c1 97 0 0.0123499f
c2 92 0 0.0246013f
c3 90 0 0.0335183f
c4 70 0 0.0955432f
c5 65 0 0.109556f
c6 58 0 0.112992f
c7 53 0 0.326185f
c8 44 0 0.199194f
c9 39 0 0.019029f
c10 36 0 0.0270546f
c11 35 0 0.00729121f
c12 32 0 0.0877975f
c13 29 0 0.0545812f
c14 28 0 0.0710348f
c15 25 0 0.052971f
c16 22 0 0.0133251f
c17 21 0 0.0171497f
c18 13 0 0.0274428f
c19 8 0 0.049731f
r20 97 100 0.0461636
r21 97 99 0.0461636
r22 95 99 0.290093
r23 92 95 0.0461636
r24 87 90 0.0460336
r25 58 60 8.07448
r26 58 65 13.2552
r27 56 60 34
r28 53 56 97
r29 48 70 16.3327
r30 46 48 4.572
r31 43 44 8.16635
r32 41 43 2.286
r33 39 44 8
r34 36 97 8
r35 35 39 8
r36 35 36 8
r37 32 70 8
r38 29 92 8
r39 28 32 8
r40 28 29 8
r41 25 65 8
r42 22 87 8
r43 21 25 8
r44 21 22 8
r45 13 100 0.197407
r46 8 13 0.0363174
r47 8 90 0.176944
.ends

.subckt PM_RCA%XFULLADDER1/XHALFADDER1/XXOR1/INV_Y 41 46 53 56
c0 99 0 0.0879708f
c1 97 0 0.0123499f
c2 92 0 0.0246013f
c3 90 0 0.0335183f
c4 70 0 0.0955432f
c5 65 0 0.109556f
c6 58 0 0.112992f
c7 53 0 0.326185f
c8 44 0 0.199194f
c9 39 0 0.019029f
c10 36 0 0.0270546f
c11 35 0 0.00729121f
c12 32 0 0.0877975f
c13 29 0 0.0545812f
c14 28 0 0.0710348f
c15 25 0 0.052971f
c16 22 0 0.0133251f
c17 21 0 0.0171497f
c18 13 0 0.0274428f
c19 8 0 0.049731f
r20 97 100 0.0461636
r21 97 99 0.0461636
r22 95 99 0.290093
r23 92 95 0.0461636
r24 87 90 0.0460336
r25 58 60 8.07448
r26 58 65 13.2552
r27 56 60 34
r28 53 56 97
r29 48 70 16.3327
r30 46 48 4.572
r31 43 44 8.16635
r32 41 43 2.286
r33 39 44 8
r34 36 97 8
r35 35 39 8
r36 35 36 8
r37 32 70 8
r38 29 92 8
r39 28 32 8
r40 28 29 8
r41 25 65 8
r42 22 87 8
r43 21 25 8
r44 21 22 8
r45 13 100 0.197407
r46 8 13 0.0363174
r47 8 90 0.176944
.ends

.subckt PM_RCA%XFULLADDER2/XHALFADDER1/XXOR1/INV_Y 41 46 53 56
c0 99 0 0.0879708f
c1 97 0 0.0123499f
c2 92 0 0.0246013f
c3 90 0 0.0335183f
c4 70 0 0.0955432f
c5 65 0 0.109556f
c6 58 0 0.112992f
c7 53 0 0.326185f
c8 44 0 0.199194f
c9 39 0 0.019029f
c10 36 0 0.0270546f
c11 35 0 0.00729121f
c12 32 0 0.0877975f
c13 29 0 0.0545812f
c14 28 0 0.0710348f
c15 25 0 0.052971f
c16 22 0 0.0133251f
c17 21 0 0.0171497f
c18 13 0 0.0274428f
c19 8 0 0.049731f
r20 97 100 0.0461636
r21 97 99 0.0461636
r22 95 99 0.290093
r23 92 95 0.0461636
r24 87 90 0.0461636
r25 58 60 8.07448
r26 58 65 13.2552
r27 56 60 34
r28 53 56 97
r29 48 70 16.3327
r30 46 48 4.59
r31 43 44 8.16635
r32 41 43 2.295
r33 39 44 8
r34 36 97 8
r35 35 39 8
r36 35 36 8
r37 32 70 8
r38 29 92 8
r39 28 32 8
r40 28 29 8
r41 25 65 8
r42 22 87 8
r43 21 25 8
r44 21 22 8
r45 13 100 0.197407
r46 8 13 0.0363174
r47 8 90 0.176944
.ends

.subckt PM_RCA%XFULLADDER3/XHALFADDER1/XXOR1/INV_Y 41 46 53 56
c0 99 0 0.0879708f
c1 97 0 0.0123499f
c2 92 0 0.0246013f
c3 90 0 0.0335183f
c4 70 0 0.0955432f
c5 65 0 0.109556f
c6 58 0 0.112992f
c7 53 0 0.326185f
c8 44 0 0.199194f
c9 39 0 0.019029f
c10 36 0 0.0270546f
c11 35 0 0.00729121f
c12 32 0 0.0877975f
c13 29 0 0.0545812f
c14 28 0 0.0710348f
c15 25 0 0.052971f
c16 22 0 0.0133251f
c17 21 0 0.0171497f
c18 13 0 0.0274428f
c19 8 0 0.049731f
r20 97 100 0.0461636
r21 97 99 0.0461636
r22 95 99 0.290093
r23 92 95 0.0461636
r24 87 90 0.0461636
r25 58 60 8.07448
r26 58 65 13.2552
r27 56 60 34
r28 53 56 97
r29 48 70 16.3327
r30 46 48 4.59
r31 43 44 8.16635
r32 41 43 2.295
r33 39 44 8
r34 36 97 8
r35 35 39 8
r36 35 36 8
r37 32 70 8
r38 29 92 8
r39 28 32 8
r40 28 29 8
r41 25 65 8
r42 22 87 8
r43 21 25 8
r44 21 22 8
r45 13 100 0.197407
r46 8 13 0.0363174
r47 8 90 0.176944
.ends

.subckt PM_RCA%XFULLADDER0/W1 55 56 60 61 67 71 75 79 82 85
c0 150 0 0.145965f
c1 146 0 0.0306467f
c2 127 0 0.162822f
c3 122 0 0.0899848f
c4 120 0 0.110693f
c5 118 0 0.103195f
c6 113 0 0.117901f
c7 104 0 0.13444f
c8 103 0 0.100331f
c9 98 0 0.115449f
c10 95 0 0.157376f
c11 93 0 0.135888f
c12 90 0 0.125237f
c13 82 0 0.365055f
c14 79 0 0.137995f
c15 71 0 0.107081f
c16 67 0 0.135273f
c17 64 0 0.11865f
c18 60 0 0.00780606f
c19 59 0 0.128737f
c20 53 0 0.0383964f
c21 50 0 0.00488225f
c22 49 0 0.0371017f
c23 46 0 0.124698f
c24 43 0 0.0676641f
c25 42 0 0.0261759f
c26 39 0 0.0682006f
c27 35 0 0.038149f
c28 27 0 0.158991f
c29 20 0 0.0874715f
c30 19 0 0.0332931f
c31 18 0 0.0881764f
c32 14 0 0.161194f
c33 11 0 0.0458216f
c34 10 0 0.0859246f
r35 126 127 8
r36 122 123 8
r37 120 126 0.11622
r38 120 122 0.09438
r39 104 123 0.13944
r40 103 105 8.07448
r41 103 104 13.2552
r42 99 127 0.15176
r43 98 100 8.24673
r44 98 99 13.2552
r45 93 96 9.00482
r46 93 95 8.85728
r47 93 118 13.2552
r48 87 90 5.53404
r49 87 113 13.2552
r50 85 105 34.5
r51 82 85 97
r52 79 100 34.5
r53 79 96 46.75
r54 75 95 23.25
r55 69 90 4.73303
r56 69 71 25.25
r57 65 90 4.73303
r58 65 67 35.25
r59 63 64 16.3327
r60 61 63 4.608
r61 60 63 4.572
r62 58 59 8.16635
r63 56 58 2.304
r64 55 58 2.286
r65 53 118 8
r66 50 151 0.0039
r67 50 150 0.0487391
r68 49 53 8
r69 49 50 8
r70 46 113 8
r71 43 148 0.0452903
r72 42 46 8
r73 42 43 8
r74 36 146 0.0486091
r75 35 39 8
r76 35 36 8
r77 29 148 0.0232875
r78 29 150 0.8411
r79 27 151 0.0255799
r80 27 146 0.3887
r81 23 39 8
r82 20 23 0.0287778
r83 18 59 0.0496831
r84 16 64 0.143043
r85 15 19 0.0296412
r86 14 20 0.0267979
r87 14 15 0.377391
r88 12 19 0.00770322
r89 12 18 0.23587
r90 11 16 0.039111
r91 10 19 0.0296412
r92 10 11 0.168913
.ends

.subckt PM_RCA%XFULLADDER0/W3 35 40 47 50
c0 76 0 0.0716004f
c1 73 0 0.0785653f
c2 63 0 0.0935951f
c3 55 0 0.129834f
c4 53 0 0.1152f
c5 50 0 0.118637f
c6 43 0 0.0796037f
c7 38 0 0.117128f
c8 33 0 0.0841977f
c9 30 0 0.0241063f
c10 29 0 0.0605563f
c11 26 0 0.0685867f
c12 23 0 0.0350867f
c13 22 0 0.0324646f
c14 16 0 0.0228677f
c15 15 0 0.411353f
c16 8 0 0.0777542f
r17 53 56 8.23593
r18 53 55 8.26836
r19 53 63 13.2552
r20 50 56 27.5
r21 47 55 33
r22 42 43 16.3327
r23 40 42 4.572
r24 37 38 8.16635
r25 35 37 2.286
r26 33 63 8
r27 30 76 0.0488691
r28 29 33 8
r29 29 30 8
r30 23 73 0.0488691
r31 22 26 8
r32 22 23 8
r33 17 76 0.4446
r34 15 17 0.0363174
r35 15 16 1.9305
r36 13 16 0.0363174
r37 13 73 0.4654
r38 11 43 0.150957
r39 10 38 0.302522
r40 8 11 0.0517838
r41 8 10 0.0520725
r42 8 26 8
.ends

.subckt PM_RCA%XFULLADDER1/W1 55 56 60 61 67 71 75 79 82 85
c0 150 0 0.145965f
c1 146 0 0.0306467f
c2 127 0 0.162822f
c3 122 0 0.0899848f
c4 120 0 0.110693f
c5 118 0 0.103195f
c6 113 0 0.117913f
c7 104 0 0.13444f
c8 103 0 0.100331f
c9 98 0 0.115449f
c10 95 0 0.157376f
c11 93 0 0.135888f
c12 90 0 0.125471f
c13 82 0 0.365055f
c14 79 0 0.137995f
c15 71 0 0.107081f
c16 67 0 0.137278f
c17 64 0 0.11865f
c18 60 0 0.00780606f
c19 59 0 0.128737f
c20 53 0 0.0383964f
c21 50 0 0.00488225f
c22 49 0 0.0371017f
c23 46 0 0.13008f
c24 43 0 0.0674062f
c25 42 0 0.0261883f
c26 39 0 0.0682006f
c27 35 0 0.038149f
c28 27 0 0.158991f
c29 20 0 0.0874715f
c30 19 0 0.0332931f
c31 18 0 0.0881764f
c32 14 0 0.161194f
c33 11 0 0.0458216f
c34 10 0 0.0859246f
r35 126 127 8
r36 122 123 8
r37 120 126 0.11622
r38 120 122 0.09438
r39 104 123 0.13944
r40 103 105 8.07448
r41 103 104 13.2552
r42 99 127 0.15176
r43 98 100 8.24673
r44 98 99 13.2552
r45 93 96 9.00482
r46 93 95 8.85728
r47 93 118 13.2552
r48 87 90 5.53404
r49 87 113 13.2552
r50 85 105 34.5
r51 82 85 97
r52 79 100 34.5
r53 79 96 46.75
r54 75 95 23.25
r55 69 90 4.73303
r56 69 71 25.25
r57 65 90 4.73303
r58 65 67 35.25
r59 63 64 16.3327
r60 61 63 4.608
r61 60 63 4.572
r62 58 59 8.16635
r63 56 58 2.304
r64 55 58 2.286
r65 53 118 8
r66 50 151 0.0039
r67 50 150 0.0487391
r68 49 53 8
r69 49 50 8
r70 46 113 8
r71 43 148 0.0452903
r72 42 46 8
r73 42 43 8
r74 36 146 0.0486091
r75 35 39 8
r76 35 36 8
r77 29 148 0.0232875
r78 29 150 0.8411
r79 27 151 0.0255799
r80 27 146 0.3887
r81 23 39 8
r82 20 23 0.0287778
r83 18 59 0.0496831
r84 16 64 0.143043
r85 15 19 0.0296412
r86 14 20 0.0267979
r87 14 15 0.377391
r88 12 19 0.00770322
r89 12 18 0.23587
r90 11 16 0.039111
r91 10 19 0.0296412
r92 10 11 0.168913
.ends

.subckt PM_RCA%XFULLADDER1/W3 35 40 47 50
c0 76 0 0.0716004f
c1 73 0 0.0824591f
c2 63 0 0.0935951f
c3 55 0 0.129834f
c4 53 0 0.1152f
c5 50 0 0.118637f
c6 43 0 0.0796037f
c7 38 0 0.116559f
c8 33 0 0.0842f
c9 30 0 0.0241063f
c10 29 0 0.0605563f
c11 26 0 0.072982f
c12 23 0 0.0350867f
c13 22 0 0.0324754f
c14 16 0 0.0220668f
c15 15 0 0.404596f
c16 8 0 0.0777605f
r17 53 56 8.23593
r18 53 55 8.26836
r19 53 63 13.2552
r20 50 56 27.5
r21 47 55 33
r22 42 43 16.3327
r23 40 42 4.572
r24 37 38 8.16635
r25 35 37 2.286
r26 33 63 8
r27 30 76 0.0488691
r28 29 33 8
r29 29 30 8
r30 23 73 0.0488691
r31 22 26 8
r32 22 23 8
r33 17 76 0.4446
r34 15 17 0.0363174
r35 15 16 1.9305
r36 13 16 0.0363174
r37 13 73 0.4654
r38 11 43 0.150957
r39 10 38 0.302522
r40 8 11 0.0517838
r41 8 10 0.0520725
r42 8 26 8
.ends

.subckt PM_RCA%XFULLADDER2/W1 55 56 60 61 67 71 75 79 82 85
c0 150 0 0.145965f
c1 146 0 0.0306467f
c2 127 0 0.162822f
c3 122 0 0.0899848f
c4 120 0 0.110693f
c5 118 0 0.103195f
c6 113 0 0.117913f
c7 104 0 0.13444f
c8 103 0 0.100331f
c9 98 0 0.115449f
c10 95 0 0.157376f
c11 93 0 0.135888f
c12 90 0 0.125471f
c13 82 0 0.365055f
c14 79 0 0.137995f
c15 71 0 0.107081f
c16 67 0 0.137278f
c17 64 0 0.11865f
c18 60 0 0.00780606f
c19 59 0 0.128737f
c20 53 0 0.0383964f
c21 50 0 0.00488225f
c22 49 0 0.0371017f
c23 46 0 0.13008f
c24 43 0 0.0674062f
c25 42 0 0.0261883f
c26 39 0 0.0682006f
c27 35 0 0.038149f
c28 27 0 0.158991f
c29 20 0 0.0874715f
c30 19 0 0.0332931f
c31 18 0 0.0881764f
c32 14 0 0.161194f
c33 11 0 0.0458216f
c34 10 0 0.0859246f
r35 126 127 8
r36 122 123 8
r37 120 126 0.11635
r38 120 122 0.09425
r39 104 123 0.13944
r40 103 105 8.07448
r41 103 104 13.2552
r42 99 127 0.15176
r43 98 100 8.24673
r44 98 99 13.2552
r45 93 96 9.00482
r46 93 95 8.85728
r47 93 118 13.2552
r48 87 90 5.55319
r49 87 113 13.2552
r50 85 105 34.5
r51 82 85 97
r52 79 100 34.5
r53 79 96 46.75
r54 75 95 23.25
r55 69 90 4.73303
r56 69 71 25.25
r57 65 90 4.73303
r58 65 67 35.25
r59 63 64 16.3327
r60 61 63 4.608
r61 60 63 4.572
r62 58 59 8.16635
r63 56 58 2.304
r64 55 58 2.286
r65 53 118 8
r66 50 151 0.0039
r67 50 150 0.0487391
r68 49 53 8
r69 49 50 8
r70 46 113 8
r71 43 148 0.0454301
r72 42 46 8
r73 42 43 8
r74 36 146 0.0487391
r75 35 39 8
r76 35 36 8
r77 29 148 0.0232875
r78 29 150 0.8411
r79 27 151 0.0255799
r80 27 146 0.3887
r81 23 39 8
r82 20 23 0.0287778
r83 18 59 0.0496831
r84 16 64 0.143043
r85 15 19 0.0296412
r86 14 20 0.0267979
r87 14 15 0.377391
r88 12 19 0.00770322
r89 12 18 0.23587
r90 11 16 0.039111
r91 10 19 0.0296412
r92 10 11 0.168913
.ends

.subckt PM_RCA%XFULLADDER2/W3 35 40 47 50
c0 76 0 0.0716004f
c1 73 0 0.0824591f
c2 63 0 0.0935951f
c3 55 0 0.129834f
c4 53 0 0.1152f
c5 50 0 0.118637f
c6 43 0 0.0796037f
c7 38 0 0.116559f
c8 33 0 0.0841977f
c9 30 0 0.0241063f
c10 29 0 0.0605563f
c11 26 0 0.072982f
c12 23 0 0.0350867f
c13 22 0 0.0324754f
c14 16 0 0.0220668f
c15 15 0 0.404776f
c16 8 0 0.0777605f
r17 53 56 8.23593
r18 53 55 8.26836
r19 53 63 13.2552
r20 50 56 27.5
r21 47 55 33
r22 42 43 16.3327
r23 40 42 4.59
r24 37 38 8.16635
r25 35 37 2.295
r26 33 63 8
r27 30 76 0.0488691
r28 29 33 8
r29 29 30 8
r30 23 73 0.0488691
r31 22 26 8
r32 22 23 8
r33 17 76 0.4446
r34 15 17 0.0363174
r35 15 16 1.9305
r36 13 16 0.0363174
r37 13 73 0.4654
r38 11 43 0.150957
r39 10 38 0.302522
r40 8 11 0.0517838
r41 8 10 0.0520725
r42 8 26 8
.ends

.subckt PM_RCA%XFULLADDER3/W1 55 56 60 61 67 71 75 79 82 85
c0 150 0 0.145965f
c1 146 0 0.0306467f
c2 127 0 0.162822f
c3 122 0 0.0899848f
c4 120 0 0.110693f
c5 118 0 0.103195f
c6 113 0 0.117913f
c7 104 0 0.13444f
c8 103 0 0.100331f
c9 98 0 0.115449f
c10 95 0 0.157376f
c11 93 0 0.135888f
c12 90 0 0.125471f
c13 82 0 0.365055f
c14 79 0 0.137995f
c15 71 0 0.107081f
c16 67 0 0.137278f
c17 64 0 0.11865f
c18 60 0 0.00780606f
c19 59 0 0.128737f
c20 53 0 0.0383964f
c21 50 0 0.00488225f
c22 49 0 0.0371017f
c23 46 0 0.13008f
c24 43 0 0.0674062f
c25 42 0 0.0261883f
c26 39 0 0.0682006f
c27 35 0 0.038149f
c28 27 0 0.158991f
c29 20 0 0.0874715f
c30 19 0 0.0332931f
c31 18 0 0.0881764f
c32 14 0 0.161194f
c33 11 0 0.0458216f
c34 10 0 0.0859246f
r35 126 127 8
r36 122 123 8
r37 120 126 0.11635
r38 120 122 0.09425
r39 104 123 0.13944
r40 103 105 8.07448
r41 103 104 13.2552
r42 99 127 0.15176
r43 98 100 8.24673
r44 98 99 13.2552
r45 93 96 9.00482
r46 93 95 8.85728
r47 93 118 13.2552
r48 87 90 5.55319
r49 87 113 13.2552
r50 85 105 34.5
r51 82 85 97
r52 79 100 34.5
r53 79 96 46.75
r54 75 95 23.25
r55 69 90 4.73303
r56 69 71 25.25
r57 65 90 4.73303
r58 65 67 35.25
r59 63 64 16.3327
r60 61 63 4.59
r61 60 63 4.59
r62 58 59 8.16635
r63 56 58 2.295
r64 55 58 2.295
r65 53 118 8
r66 50 151 0.0039
r67 50 150 0.0487391
r68 49 53 8
r69 49 50 8
r70 46 113 8
r71 43 148 0.0454301
r72 42 46 8
r73 42 43 8
r74 36 146 0.0487391
r75 35 39 8
r76 35 36 8
r77 29 148 0.0232875
r78 29 150 0.8411
r79 27 151 0.0255799
r80 27 146 0.3887
r81 23 39 8
r82 20 23 0.0287778
r83 18 59 0.0496831
r84 16 64 0.143043
r85 15 19 0.0296412
r86 14 20 0.0267979
r87 14 15 0.377391
r88 12 19 0.00770322
r89 12 18 0.23587
r90 11 16 0.039111
r91 10 19 0.0296412
r92 10 11 0.168913
.ends

.subckt PM_RCA%XFULLADDER3/W3 35 40 47 50
c0 76 0 0.0619901f
c1 73 0 0.0824591f
c2 63 0 0.0705818f
c3 55 0 0.116873f
c4 53 0 0.107298f
c5 50 0 0.112358f
c6 43 0 0.0796037f
c7 38 0 0.116559f
c8 33 0 0.0464078f
c9 30 0 0.0225546f
c10 29 0 0.0270895f
c11 26 0 0.072982f
c12 23 0 0.0350867f
c13 22 0 0.0324754f
c14 16 0 0.0220668f
c15 15 0 0.393848f
c16 8 0 0.0777605f
r17 53 56 8.23593
r18 53 55 8.26836
r19 53 63 13.2552
r20 50 56 27.5
r21 47 55 33
r22 42 43 16.3327
r23 40 42 4.59
r24 37 38 8.16635
r25 35 37 2.295
r26 33 63 8
r27 30 76 0.0488691
r28 29 33 8
r29 29 30 8
r30 23 73 0.0488691
r31 22 26 8
r32 22 23 8
r33 17 76 0.4446
r34 15 17 0.0363174
r35 15 16 1.9305
r36 13 16 0.0363174
r37 13 73 0.4654
r38 11 43 0.150957
r39 10 38 0.302522
r40 8 11 0.0517838
r41 8 10 0.0520725
r42 8 26 8
.ends

.subckt PM_RCA%A0 16 37 42 45 49 53 56
c0 89 0 0.154589f
c1 86 0 0.122435f
c2 81 0 0.177375f
c3 71 0 0.165762f
c4 70 0 0.12153f
c5 67 0 0.123377f
c6 62 0 0.0431156f
c7 58 0 0.105818f
c8 53 0 0.376452f
c9 49 0 0.116165f
c10 45 0 0.135229f
c11 42 0 0.123602f
c12 37 0 0.0874065f
c13 33 0 0.0976542f
c14 30 0 0.112538f
c15 27 0 0.124508f
c16 26 0 0.0612804f
c17 23 0 0.00611912f
c18 20 0 0.10104f
c19 18 0 0.0182079f
c20 17 0 0.118985f
c21 16 0 0.0804692f
c22 7 0 0.00736635f
c23 6 0 0.0544413f
r24 89 90 8
r25 80 81 8
r26 71 90 0.16604
r27 70 72 8.07448
r28 70 71 13.2552
r29 64 67 5.53404
r30 64 86 13.2552
r31 59 81 0.1666
r32 58 60 8.10773
r33 58 59 13.2552
r34 56 72 34.5
r35 53 56 97
r36 47 67 4.73303
r37 47 49 25.25
r38 43 67 4.73303
r39 43 45 35.25
r40 42 60 34.5
r41 39 62 8.43011
r42 39 42 45.75
r43 35 62 8.43011
r44 35 37 24.25
r45 32 33 13.2552
r46 30 62 1.56772
r47 30 32 5.06667
r48 27 86 8
r49 26 29 0.0486091
r50 26 27 8
r51 23 33 8
r52 22 23 8
r53 20 29 0.325
r54 17 20 0.0363174
r55 17 18 0.3484
r56 14 22 0.0487391
r57 14 16 0.312
r58 13 18 0.0363174
r59 13 16 0.1482
r60 7 89 0.14924
r61 6 80 0.04368
r62 6 7 0.0100396
.ends

.subckt PM_RCA%B0 14 29 31 35 39 46 49
c0 74 0 0.406942f
c1 71 0 0.122967f
c2 66 0 0.109482f
c3 65 0 0.128581f
c4 63 0 0.0809671f
c5 61 0 0.0874834f
c6 56 0 0.100865f
c7 55 0 0.101145f
c8 49 0 0.127981f
c9 46 0 0.14377f
c10 41 0 0.0750189f
c11 39 0 0.0992982f
c12 35 0 0.129095f
c13 29 0 0.352477f
c14 27 0 0.104883f
c15 25 0 0.15221f
c16 24 0 0.0564951f
c17 23 0 0.072233f
c18 19 0 0.0435731f
c19 18 0 0.0530933f
c20 12 0 0.0118672f
c21 11 0 0.17217f
c22 10 0 0.115162f
r23 70 74 0.2938
r24 70 71 8
r25 65 68 9.336
r26 65 67 8.62171
r27 65 66 13.2552
r28 61 74 8
r29 60 63 8.05107
r30 60 61 13.2552
r31 55 58 8.22233
r32 55 57 8.25505
r33 55 56 13.2552
r34 53 71 0.124444
r35 52 53 13.2552
r36 49 68 36.5
r37 46 67 33.5
r38 43 46 39.25
r39 41 43 5.02856
r40 41 63 21.25
r41 39 58 25.25
r42 35 57 35.25
r43 29 31 97
r44 27 52 8.33597
r45 27 29 27.75
r46 24 66 8
r47 23 25 0.0487391
r48 23 24 8
r49 19 56 8
r50 18 21 0.0486091
r51 18 19 8
r52 15 25 0.4368
r53 12 14 0.3666
r54 11 15 0.0363174
r55 11 14 0.3458
r56 10 12 0.0363174
r57 10 21 0.3952
.ends

.subckt PM_RCA%XFULLADDER0/W2 29 34 41 45
c0 59 0 0.107206f
c1 51 0 0.132673f
c2 45 0 0.116317f
c3 41 0 0.141948f
c4 37 0 0.0714515f
c5 32 0 0.0994519f
c6 27 0 0.144045f
c7 26 0 0.119985f
c8 25 0 0.0570709f
c9 22 0 0.0806354f
c10 21 0 0.0696916f
c11 20 0 0.0537669f
c12 16 0 0.0156285f
c13 15 0 0.85292f
c14 8 0 0.0659382f
r15 48 51 5.53404
r16 48 59 13.2552
r17 43 51 4.73303
r18 43 45 25.25
r19 39 51 4.73303
r20 39 41 35.25
r21 36 37 16.3327
r22 34 36 4.572
r23 31 32 8.16635
r24 29 31 2.286
r25 26 59 8
r26 25 27 0.0488691
r27 25 26 8
r28 20 22 0.0488691
r29 20 21 8
r30 17 27 0.4654
r31 15 17 0.0363174
r32 15 16 2.7911
r33 13 16 0.0363174
r34 13 22 0.4797
r35 11 37 0.14487
r36 10 32 0.308609
r37 8 11 0.0515298
r38 8 10 0.0518409
r39 8 21 8
.ends

.subckt PM_RCA%A1 16 37 42 45 49 53 56
c0 89 0 0.154589f
c1 86 0 0.122448f
c2 81 0 0.177375f
c3 71 0 0.165762f
c4 70 0 0.12153f
c5 67 0 0.123611f
c6 62 0 0.0431156f
c7 58 0 0.105851f
c8 53 0 0.376452f
c9 49 0 0.116165f
c10 45 0 0.136508f
c11 42 0 0.134779f
c12 37 0 0.0936469f
c13 33 0 0.123612f
c14 30 0 0.131979f
c15 27 0 0.130408f
c16 26 0 0.0612979f
c17 23 0 0.0453947f
c18 22 0 0.00189436f
c19 20 0 0.101041f
c20 18 0 0.0201752f
c21 17 0 0.118985f
c22 16 0 0.0857383f
c23 7 0 0.00736635f
c24 6 0 0.0544413f
r25 89 90 8
r26 80 81 8
r27 71 90 0.16604
r28 70 72 8.07448
r29 70 71 13.2552
r30 64 67 5.53404
r31 64 86 13.2552
r32 59 81 0.1666
r33 58 60 8.10773
r34 58 59 13.2552
r35 56 72 34.5
r36 53 56 97
r37 47 67 4.73303
r38 47 49 25.25
r39 43 67 4.73303
r40 43 45 35.25
r41 42 60 34.5
r42 39 62 8.43011
r43 39 42 45.75
r44 35 62 8.43011
r45 35 37 24.25
r46 32 33 13.2552
r47 30 62 1.56772
r48 30 32 5.06667
r49 27 86 8
r50 26 29 0.0486091
r51 26 27 8
r52 23 33 8
r53 22 23 8
r54 20 29 0.325
r55 17 20 0.0363174
r56 17 18 0.3484
r57 14 22 0.0487391
r58 14 16 0.312
r59 13 18 0.0363174
r60 13 16 0.1482
r61 7 89 0.14924
r62 6 80 0.04368
r63 6 7 0.0100396
.ends

.subckt PM_RCA%B1 14 29 31 35 39 46 49
c0 74 0 0.412371f
c1 71 0 0.122969f
c2 66 0 0.109482f
c3 65 0 0.128581f
c4 63 0 0.0809671f
c5 61 0 0.0874834f
c6 56 0 0.100879f
c7 55 0 0.101145f
c8 49 0 0.127981f
c9 46 0 0.14377f
c10 41 0 0.0750189f
c11 39 0 0.0992982f
c12 35 0 0.130373f
c13 29 0 0.352452f
c14 27 0 0.105036f
c15 25 0 0.15221f
c16 24 0 0.0564951f
c17 23 0 0.072233f
c18 19 0 0.0491334f
c19 18 0 0.0531071f
c20 12 0 0.0118672f
c21 11 0 0.17217f
c22 10 0 0.115162f
r23 70 74 0.2938
r24 70 71 8
r25 65 68 9.336
r26 65 67 8.62171
r27 65 66 13.2552
r28 61 74 8
r29 60 63 8.05107
r30 60 61 13.2552
r31 55 58 8.22233
r32 55 57 8.25505
r33 55 56 13.2552
r34 53 71 0.124444
r35 52 53 13.2552
r36 49 68 36.5
r37 46 67 33.5
r38 43 46 39.25
r39 41 43 5.02856
r40 41 63 21.25
r41 39 58 25.25
r42 35 57 35.25
r43 29 31 97
r44 27 52 8.33597
r45 27 29 27.75
r46 24 66 8
r47 23 25 0.0487391
r48 23 24 8
r49 19 56 8
r50 18 21 0.0486091
r51 18 19 8
r52 15 25 0.4368
r53 12 14 0.3666
r54 11 15 0.0363174
r55 11 14 0.3458
r56 10 12 0.0363174
r57 10 21 0.3952
.ends

.subckt PM_RCA%XFULLADDER1/W2 29 34 41 45
c0 59 0 0.107206f
c1 51 0 0.132674f
c2 45 0 0.116317f
c3 41 0 0.141954f
c4 37 0 0.0963648f
c5 32 0 0.151504f
c6 27 0 0.144046f
c7 26 0 0.119994f
c8 25 0 0.0570711f
c9 22 0 0.133809f
c10 21 0 0.105032f
c11 20 0 0.0764895f
c12 16 0 0.0272649f
c13 15 0 0.919271f
c14 8 0 0.0841435f
r15 48 51 5.53404
r16 48 59 13.2552
r17 43 51 4.73303
r18 43 45 25.25
r19 39 51 4.73303
r20 39 41 35.25
r21 36 37 16.3327
r22 34 36 4.572
r23 31 32 8.16635
r24 29 31 2.286
r25 26 59 8
r26 25 27 0.0488691
r27 25 26 8
r28 20 22 0.0488691
r29 20 21 8
r30 17 27 0.4654
r31 15 17 0.0363174
r32 15 16 2.7911
r33 13 16 0.0363174
r34 13 22 0.4797
r35 11 37 0.14487
r36 10 32 0.308609
r37 8 11 0.0515298
r38 8 10 0.0518409
r39 8 21 8
.ends

.subckt PM_RCA%A2 16 37 42 45 49 53 56
c0 89 0 0.154589f
c1 86 0 0.122448f
c2 81 0 0.177375f
c3 71 0 0.165762f
c4 70 0 0.12153f
c5 67 0 0.123611f
c6 62 0 0.0431156f
c7 58 0 0.105851f
c8 53 0 0.376452f
c9 49 0 0.116165f
c10 45 0 0.136508f
c11 42 0 0.134779f
c12 37 0 0.0936469f
c13 33 0 0.123612f
c14 30 0 0.131979f
c15 27 0 0.130408f
c16 26 0 0.0612979f
c17 23 0 0.0453947f
c18 22 0 0.00189436f
c19 20 0 0.101041f
c20 18 0 0.0201752f
c21 17 0 0.118985f
c22 16 0 0.0857383f
c23 7 0 0.00736635f
c24 6 0 0.0544413f
r25 89 90 8
r26 80 81 8
r27 71 90 0.16604
r28 70 72 8.07448
r29 70 71 13.2552
r30 64 67 5.53404
r31 64 86 13.2552
r32 59 81 0.1666
r33 58 60 8.10773
r34 58 59 13.2552
r35 56 72 34.5
r36 53 56 97
r37 47 67 4.73303
r38 47 49 25.25
r39 43 67 4.73303
r40 43 45 35.25
r41 42 60 34.5
r42 39 62 8.43011
r43 39 42 45.75
r44 35 62 8.43011
r45 35 37 24.25
r46 32 33 13.2552
r47 30 62 1.56772
r48 30 32 5.06667
r49 27 86 8
r50 26 29 0.0486091
r51 26 27 8
r52 23 33 8
r53 22 23 8
r54 20 29 0.325
r55 17 20 0.0363174
r56 17 18 0.3484
r57 14 22 0.0487391
r58 14 16 0.312
r59 13 18 0.0363174
r60 13 16 0.1482
r61 7 89 0.14924
r62 6 80 0.04368
r63 6 7 0.0100396
.ends

.subckt PM_RCA%B2 14 29 31 35 39 46 49
c0 74 0 0.412371f
c1 71 0 0.122969f
c2 66 0 0.109482f
c3 65 0 0.128581f
c4 63 0 0.0809671f
c5 61 0 0.0874834f
c6 56 0 0.100879f
c7 55 0 0.101145f
c8 49 0 0.127981f
c9 46 0 0.14377f
c10 41 0 0.0750189f
c11 39 0 0.0992982f
c12 35 0 0.130373f
c13 29 0 0.352452f
c14 27 0 0.105036f
c15 25 0 0.15221f
c16 24 0 0.0564951f
c17 23 0 0.072233f
c18 19 0 0.0491334f
c19 18 0 0.0531071f
c20 12 0 0.0118672f
c21 11 0 0.17217f
c22 10 0 0.115162f
r23 70 74 0.29367
r24 70 71 8
r25 65 68 9.336
r26 65 67 8.62171
r27 65 66 13.2552
r28 61 74 8
r29 60 63 8.07022
r30 60 61 13.2552
r31 55 58 8.22233
r32 55 57 8.25505
r33 55 56 13.2552
r34 53 71 0.124444
r35 52 53 13.2552
r36 49 68 36.5
r37 46 67 33.5
r38 43 46 39.25
r39 41 43 5.02856
r40 41 63 21.25
r41 39 58 25.25
r42 35 57 35.25
r43 29 31 97
r44 27 52 8.33597
r45 27 29 27.75
r46 24 66 8
r47 23 25 0.0487391
r48 23 24 8
r49 19 56 8
r50 18 21 0.0486091
r51 18 19 8
r52 15 25 0.4368
r53 12 14 0.3666
r54 11 15 0.0363174
r55 11 14 0.3458
r56 10 12 0.0363174
r57 10 21 0.3952
.ends

.subckt PM_RCA%XFULLADDER2/W2 29 34 41 45
c0 59 0 0.107206f
c1 51 0 0.132673f
c2 45 0 0.116317f
c3 41 0 0.141948f
c4 37 0 0.0963648f
c5 32 0 0.151504f
c6 27 0 0.144045f
c7 26 0 0.119985f
c8 25 0 0.0570709f
c9 22 0 0.133809f
c10 21 0 0.105032f
c11 20 0 0.0764895f
c12 16 0 0.0272649f
c13 15 0 0.919299f
c14 8 0 0.0841435f
r15 48 51 5.55319
r16 48 59 13.2552
r17 43 51 4.73303
r18 43 45 25.25
r19 39 51 4.73303
r20 39 41 35.25
r21 36 37 16.3327
r22 34 36 4.572
r23 31 32 8.16635
r24 29 31 2.286
r25 26 59 8
r26 25 27 0.0488691
r27 25 26 8
r28 20 22 0.0488691
r29 20 21 8
r30 17 27 0.4654
r31 15 17 0.0363174
r32 15 16 2.7911
r33 13 16 0.0363174
r34 13 22 0.4797
r35 11 37 0.14487
r36 10 32 0.308609
r37 8 11 0.0515298
r38 8 10 0.0518409
r39 8 21 8
.ends

.subckt PM_RCA%A3 16 37 42 45 49 53 56
c0 89 0 0.154589f
c1 86 0 0.122448f
c2 81 0 0.177375f
c3 71 0 0.165762f
c4 70 0 0.12153f
c5 67 0 0.123611f
c6 62 0 0.0431156f
c7 58 0 0.105851f
c8 53 0 0.376452f
c9 49 0 0.116165f
c10 45 0 0.136508f
c11 42 0 0.134779f
c12 37 0 0.0936469f
c13 33 0 0.123612f
c14 30 0 0.131979f
c15 27 0 0.130408f
c16 26 0 0.0612979f
c17 23 0 0.0453947f
c18 22 0 0.00189436f
c19 20 0 0.101041f
c20 18 0 0.0201752f
c21 17 0 0.118985f
c22 16 0 0.0857383f
c23 7 0 0.00736635f
c24 6 0 0.0544413f
r25 89 90 8
r26 80 81 8
r27 71 90 0.16604
r28 70 72 8.07448
r29 70 71 13.2552
r30 64 67 5.55319
r31 64 86 13.2552
r32 59 81 0.1666
r33 58 60 8.10773
r34 58 59 13.2552
r35 56 72 34.5
r36 53 56 97
r37 47 67 4.73303
r38 47 49 25.25
r39 43 67 4.73303
r40 43 45 35.25
r41 42 60 34.5
r42 39 62 8.43011
r43 39 42 45.75
r44 35 62 8.43011
r45 35 37 24.25
r46 32 33 13.2552
r47 30 62 1.56772
r48 30 32 5.08333
r49 27 86 8
r50 26 29 0.0486091
r51 26 27 8
r52 23 33 8
r53 22 23 8
r54 20 29 0.325
r55 17 20 0.0363174
r56 17 18 0.3484
r57 14 22 0.0487391
r58 14 16 0.312
r59 13 18 0.0363174
r60 13 16 0.1482
r61 7 89 0.14911
r62 6 80 0.04381
r63 6 7 0.0100396
.ends

.subckt PM_RCA%B3 14 29 31 35 39 46 49
c0 74 0 0.412371f
c1 71 0 0.122969f
c2 66 0 0.109482f
c3 65 0 0.128581f
c4 63 0 0.0809671f
c5 61 0 0.0874834f
c6 56 0 0.100879f
c7 55 0 0.101145f
c8 49 0 0.127981f
c9 46 0 0.14377f
c10 41 0 0.0750189f
c11 39 0 0.0992982f
c12 35 0 0.130373f
c13 29 0 0.352452f
c14 27 0 0.105036f
c15 25 0 0.15221f
c16 24 0 0.0564951f
c17 23 0 0.072233f
c18 19 0 0.0491334f
c19 18 0 0.0531071f
c20 12 0 0.0118672f
c21 11 0 0.17217f
c22 10 0 0.115162f
r23 70 74 0.2938
r24 70 71 8
r25 65 68 9.336
r26 65 67 8.62171
r27 65 66 13.2552
r28 61 74 8
r29 60 63 8.07022
r30 60 61 13.2552
r31 55 58 8.22233
r32 55 57 8.25505
r33 55 56 13.2552
r34 53 71 0.124444
r35 52 53 13.2552
r36 49 68 36.5
r37 46 67 33.5
r38 43 46 39.25
r39 41 43 5.02856
r40 41 63 21.25
r41 39 58 25.25
r42 35 57 35.25
r43 29 31 97
r44 27 52 8.33597
r45 27 29 27.75
r46 24 66 8
r47 23 25 0.0487391
r48 23 24 8
r49 19 56 8
r50 18 21 0.0486091
r51 18 19 8
r52 15 25 0.4368
r53 12 14 0.3666
r54 11 15 0.0363174
r55 11 14 0.3458
r56 10 12 0.0363174
r57 10 21 0.3952
.ends

.subckt PM_RCA%XFULLADDER3/W2 29 34 41 45
c0 59 0 0.107643f
c1 51 0 0.13253f
c2 45 0 0.117053f
c3 41 0 0.14033f
c4 37 0 0.0963648f
c5 32 0 0.151504f
c6 27 0 0.115394f
c7 26 0 0.113313f
c8 25 0 0.0561492f
c9 22 0 0.133809f
c10 21 0 0.105032f
c11 20 0 0.0764895f
c12 16 0 0.0272649f
c13 15 0 0.882955f
c14 8 0 0.0841435f
r15 48 51 5.55319
r16 48 59 13.2552
r17 43 51 4.73303
r18 43 45 25.25
r19 39 51 4.73303
r20 39 41 35.25
r21 36 37 16.3327
r22 34 36 4.59
r23 31 32 8.16635
r24 29 31 2.295
r25 26 59 8
r26 25 27 0.0488691
r27 25 26 8
r28 20 22 0.0488691
r29 20 21 8
r30 17 27 0.4654
r31 15 17 0.0363174
r32 15 16 2.7911
r33 13 16 0.0363174
r34 13 22 0.4797
r35 11 37 0.14487
r36 10 32 0.308609
r37 8 11 0.0515298
r38 8 10 0.0518409
r39 8 21 8
.ends

.subckt PM_RCA%XFULLADDER0/XHALFADDER1/W1 11 12 16 23 27
c0 42 0 0.0262248f
c1 40 0 0.0942395f
c2 35 0 0.128964f
c3 33 0 0.0385085f
c4 31 0 0.111877f
c5 30 0 0.0847406f
c6 25 0 0.0734779f
c7 23 0 0.121521f
c8 16 0 4.23279e-19
c9 15 0 0.306042f
c10 9 0 0.0915938f
c11 8 0 0.0811097f
c12 5 0 0.0139655f
c13 3 0 0.0175521f
r14 40 42 0.0488691
r15 40 41 8
r16 35 38 0.0486091
r17 31 35 8
r18 30 31 13.2552
r19 28 33 1.29764
r20 28 30 4.61489
r21 25 33 7.73958
r22 25 27 19
r23 21 33 7.73958
r24 21 23 41.5
r25 18 41 16.3327
r26 16 18 4.572
r27 14 15 8.16635
r28 12 14 2.304
r29 11 14 2.376
r30 10 15 0.546
r31 9 41 0.0515298
r32 8 10 0.039111
r33 8 9 0.108043
r34 5 42 0.1131
r35 3 5 0.0363174
r36 3 38 0.0702
.ends

.subckt PM_RCA%noxref_26 5 10 11 15
c0 34 0 0.0784619f
c1 33 0 0.19157f
c2 27 0 0.350339f
c3 18 0 0.133024f
c4 14 0 0.12315f
c5 8 0 0.0940451f
r6 31 34 0.0317353
r7 31 33 0.0319902
r8 27 34 0.145574
r9 22 33 0.145317
r10 18 27 8
r11 17 18 16.3327
r12 15 17 4.608
r13 14 31 8
r14 13 14 16.3327
r15 11 13 4.608
r16 10 13 4.572
r17 8 22 8
r18 7 8 16.3327
r19 5 7 4.572
.ends

.subckt PM_RCA%XFULLADDER0/XHALFADDER2/W1 11 12 16 23 27
c0 46 0 0.0926478f
c1 42 0 0.0297672f
c2 40 0 0.115066f
c3 36 0 0.109799f
c4 35 0 0.128611f
c5 33 0 0.0345816f
c6 30 0 0.0845194f
c7 25 0 0.0742127f
c8 23 0 0.125779f
c9 16 0 9.12122e-19
c10 15 0 0.310273f
c11 8 0 0.0817407f
c12 5 0 0.0164121f
c13 3 0 0.0242394f
r14 41 46 0.0515298
r15 40 42 0.0488691
r16 40 41 8
r17 35 38 0.0486091
r18 35 36 8
r19 30 36 13.2552
r20 28 33 1.29764
r21 28 30 4.61489
r22 25 33 7.73958
r23 25 27 18.5
r24 21 33 7.73958
r25 21 23 42
r26 18 41 16.3327
r27 16 18 4.572
r28 14 15 8.16635
r29 12 14 2.304
r30 11 14 2.376
r31 10 15 0.546
r32 8 10 0.039111
r33 8 46 0.108043
r34 5 42 0.1131
r35 3 5 0.0363174
r36 3 38 0.0988
.ends

.subckt PM_RCA%C0 8 17 21 25 27 34 37
c0 73 0 0.139349f
c1 72 0 0.0903728f
c2 71 0 0.0545134f
c3 66 0 0.068627f
c4 62 0 0.377059f
c5 59 0 0.120151f
c6 53 0 0.127021f
c7 51 0 0.0808739f
c8 49 0 0.0872446f
c9 41 0 0.0919624f
c10 40 0 0.100459f
c11 37 0 0.123452f
c12 34 0 0.130097f
c13 29 0 0.0772499f
c14 25 0 0.351176f
c15 23 0 0.101038f
c16 21 0 0.102243f
c17 17 0 0.128713f
c18 6 0 0.0153297f
c19 5 0 0.386384f
c20 4 0 0.134919f
r21 71 73 0.0487574
r22 71 72 8
r23 66 69 0.0486091
r24 58 62 0.2899
r25 58 59 8
r26 53 56 9.20932
r27 53 55 8.87287
r28 53 72 13.2552
r29 49 62 8
r30 48 51 8.05107
r31 48 49 13.2552
r32 46 59 0.124444
r33 45 46 13.2552
r34 41 66 8
r35 40 43 8.22233
r36 40 42 8.25505
r37 40 41 13.2552
r38 37 56 38.5
r39 34 55 30
r40 31 34 39.25
r41 29 31 5.02856
r42 29 51 22.75
r43 25 27 97
r44 23 45 8.33597
r45 23 25 27.75
r46 21 43 25.25
r47 17 42 35.25
r48 9 73 0.4992
r49 6 8 0.1755
r50 5 9 0.0363174
r51 5 8 0.9568
r52 4 6 0.0363174
r53 4 69 0.3185
.ends

.subckt PM_RCA%noxref_29 5 10 11 15
c0 34 0 0.0783852f
c1 33 0 0.227018f
c2 27 0 0.278399f
c3 18 0 0.101037f
c4 14 0 0.122518f
c5 8 0 0.0943212f
r6 31 34 0.0317353
r7 31 33 0.0319902
r8 27 34 0.145574
r9 22 33 0.145317
r10 18 27 8
r11 17 18 16.3327
r12 15 17 4.608
r13 14 31 8
r14 13 14 16.3327
r15 11 13 4.608
r16 10 13 4.572
r17 8 22 8
r18 7 8 16.3327
r19 5 7 4.572
.ends

.subckt PM_RCA%XFULLADDER0/W4 15 22 23 29 33
c0 50 0 0.220299f
c1 46 0 0.0800855f
c2 42 0 0.0804871f
c3 41 0 0.131415f
c4 39 0 0.0338054f
c5 36 0 0.0843436f
c6 31 0 0.0793372f
c7 29 0 0.136325f
c8 26 0 0.0915851f
c9 21 0 0.0512487f
c10 18 0 0.0336722f
c11 15 0 0.0145983f
c12 14 0 0.0144107f
c13 8 0 0.0783173f
c14 5 0 0.0593765f
c15 4 0 0.154716f
c16 3 0 0.040475f
r17 41 44 0.0486091
r18 41 42 8
r19 36 42 13.2552
r20 34 39 1.29764
r21 34 36 4.61489
r22 31 39 7.73958
r23 31 33 18.5
r24 27 39 7.73958
r25 27 29 42
r26 26 50 0.0518409
r27 26 46 8
r28 25 26 16.3327
r29 23 25 4.608
r30 22 25 4.752
r31 17 21 16.3327
r32 17 18 16.3327
r33 15 17 2.286
r34 13 21 0.0642174
r35 13 14 0.0296412
r36 12 18 0.0118696
r37 12 14 0.0296412
r38 10 50 0.439783
r39 9 14 0.00770322
r40 8 10 0.039111
r41 8 9 0.120217
r42 4 46 0.0488691
r43 4 5 0.2977
r44 3 5 0.0363174
r45 3 44 0.0884
.ends

.subckt PM_RCA%XFULLADDER1/XHALFADDER1/W1 11 12 16 23 27
c0 42 0 0.0273841f
c1 40 0 0.0956272f
c2 35 0 0.135212f
c3 33 0 0.0407427f
c4 31 0 0.112015f
c5 30 0 0.0847975f
c6 25 0 0.0789953f
c7 23 0 0.133762f